  300
Geometry Step: 100
    C     10.11645721      9.91252691      7.75937062      4.15626910
    C     10.28094457      8.63722229      7.02788263      3.10690924
    C     10.08021680      6.29269305      6.78053832      3.86636863
    H     10.00016326     10.76674736      7.06944922      0.93720431
    H     10.58969173      7.37057082      3.68563814      0.68956511
    H      9.25798110      9.87232402      8.45765537      0.93815313
    H     11.03973656     10.08408707      8.36778465      0.92211462
    H     10.03207969      5.44425367      7.49299665      0.95528961
    H      9.28718797      6.20230847      6.01256852      0.95251791
    H     11.07840476      6.36380362      6.31669414      0.95026318
   Si      8.54810781      1.55324262      2.86432200      3.03601205
   Si      6.70783674      0.67561803      5.08141420      3.02218224
   Si      5.59253541      0.96236516      7.86345173      3.01446633
   Si      2.49613726      0.87551563      7.58115184      3.03697592
   Si      1.48027615      0.83204967      4.58576329      3.04160681
   Si      4.22363031      1.38143165      3.38396158      3.05277686
   Si      8.40614632     16.36424571      2.72728647      3.02478159
   Si      6.36520058     17.33693196      4.81699216      3.01968097
   Si      5.37887350     16.33115934      7.50706345      3.02725618
   Si      2.28267942     16.32762068      7.04553737      3.02224170
   Si      1.27724196     17.48053001      4.31207537      3.01984041
   Si      3.95062010     16.39760191      3.12049393      3.02703231
   Si      1.52449733     18.18173899      9.45830940      3.03952461
   Si      3.35953198     19.06875507     11.66198698      3.01940352
   Si      4.45953793     18.76273321      1.31037247      3.01486144
   Si      7.56770619     18.84423207      1.00021466      3.03648066
   Si      8.56304097     18.85526522     11.11922652      3.03732421
   Si      5.81368357     18.34001625      9.93278437      3.04756068
   Si      1.67440499      3.39079760      9.27199711      3.02795536
   Si      3.68849840      2.40867124     11.38608143      3.02003044
   Si      4.62181446      3.40457815      0.95424108      3.03313897
   Si      7.73070372      3.32997397      0.42362871      3.02297391
   Si      8.75611775      2.19433605     10.85687624      3.01993884
   Si      6.10064521      3.32605239      9.67627708      3.02828672
   Si     18.59259022      8.32751932      4.36979038      3.03487698
   Si     16.80589050      9.22148211      2.14031294      3.02119470
   Si     15.63762142      8.91148909     12.52356504      3.01221254
   Si     12.53605568      9.00354948     12.80049519      3.03117410
   Si     11.65805512      9.04207493      2.68233626      3.01475579
   Si     14.38072112      8.47257558      3.88009137      3.05843461
   Si     18.42540539     13.27436099      4.52469655      3.02705665
   Si     16.40011990     12.29072640      2.42220933      3.01755425
   Si     15.43194054     13.27092208     12.85271949      3.02699618
   Si     12.32200490     13.30123910      0.19918190      3.02754184
   Si     11.35177981     12.13130373      2.93391943      3.01930068
   Si     13.99553995     13.23055873      4.13172348      3.02538782
   Si     11.56739196     11.45683840     10.91991223      3.03894927
   Si     13.39793143     10.53961381      8.71198049      3.01364152
   Si     14.52267813     10.84858602      5.93711011      3.01307544
   Si     17.62036847     10.76927189      6.24141108      3.03971318
   Si     18.61420193     10.72585744      9.25062957      3.03844477
   Si     15.85824439     11.24972448     10.43288943      3.05303561
   Si     11.70141228      6.49139338     11.09083821      3.02479303
   Si     13.72684466      7.47518850      9.00662540      3.01743846
   Si     14.71733505      6.46933574      6.32498220      3.02818278
   Si     17.80729702      6.47423612      6.77130481      3.01692133
   Si     18.81925424      7.62516846      9.50858685      3.01994021
   Si     16.14522623      6.54018343     10.72384306      3.02832015
   Si     11.56635098     18.18759925     10.95162615      3.03416743
   Si     13.39596549     19.07972642      8.73988884      3.01900022
   Si     14.50153573     18.77342280      5.95339945      3.01405051
   Si     17.60542368     18.85397685      6.25207550      3.03860383
   Si     18.60779111     18.90955100      9.25721657      3.03875618
   Si     15.86011712     18.35520722     10.45075845      3.04929051
   Si     13.73583527      2.41793293      9.02030294      3.02169929
   Si     14.70227024      3.41120373      6.32272042      3.02728174
   Si     17.80149657      3.41829324      6.77125595      3.01868077
   Si     18.81267413      2.26764549      9.50804049      3.01977630
   Si     16.15466179      3.36493291     10.72142396      3.02795420
   Si     18.56862752      1.55590066      4.37289625      3.03756129
   Si     16.75410922      0.66839703      2.15644508      3.01884416
   Si     15.63954491      0.97717299     12.51063556      3.01235314
   Si     12.53231894      0.89801613     12.81409193      3.03305612
   Si     11.56100118      0.85624383      2.69526477      3.04255901
   Si     14.30283094      1.40368522      3.88643258      3.05072949
   Si     18.42683002     16.34997742      4.54555188      3.02898186
   Si     16.40107705     17.33322386      2.44536175      3.02173638
   Si     15.45474685     16.33299817     12.88451645      3.03060253
   Si     12.36129431     16.35458676      0.21905057      3.02274934
   Si     11.34574165     17.50729371      2.94591062      3.02010083
   Si     13.98910332     16.39732809      4.14276503      3.02430101
   Si      1.50742262     11.42395830      9.44558559      3.03704709
   Si      3.36190303     10.55000544     11.65279328      3.01639218
   Si      4.47673999     10.87934615      1.27729556      3.01457200
   Si      7.58244479     10.83109974      0.94692872      3.07369214
   Si      8.55489594     10.73316866     11.06557930      3.04437076
   Si      5.79027666     11.27529759      9.93838128      3.04564813
   Si      1.66810619      6.47630985      9.27547591      3.02688488
   Si      3.72098238      7.46770468     11.37431534      3.01690422
   Si      4.65953583      6.46462741      0.94123446      3.01932929
   Si      7.74938644      6.34735749      0.38560973      3.06227595
   Si      8.74656446      7.60948497     10.83867713      3.02793146
   Si      6.10465820      6.50129647      9.66267534      3.02760653
   Si      6.64724342      9.20085667      5.16758684      3.05251387
   Si      5.54330687      8.90198033      7.93517592      3.01941027
   Si      2.45419588      8.98892098      7.57268443      3.04403145
   Si      1.50396455      9.04581302      4.53204196      3.04367518
   Si      4.25997435      8.50249402      3.34919507      3.04140818
   Si      8.41774360     13.27183409      2.71800440      3.02744113
   Si      6.36389199     12.26905220      4.79872448      3.02104067
   Si      5.37541264     13.27041723      7.48748805      3.02923906
   Si      2.28781254     13.26634169      7.02944836      3.01937101
   Si      1.27283849     12.13729650      4.29622307      3.02063218
   Si      3.94335320     13.22900220      3.10969771      3.02794066
   Si     11.69834106      3.40227346     11.11909163      3.02259007
   Al      8.50059508      8.24784043      2.89048750      2.38982752
    O     10.19203130      1.72213975      3.06377556      6.48817332
    O      7.92246574      1.63439895      4.43228629      6.52638279
    O      8.01428238      2.87012911      1.99702384      6.47151389
    O      8.15718605      0.11627488      2.16661380      6.43222698
    O      6.81935631      0.64808129      6.75418117      6.51421163
    O      6.89763988     18.87526179      4.47843960      6.47017068
    O      5.23486394      1.35108894      4.70820245      6.48682422
    O      5.64767391      2.60570683      8.22216866      6.52745798
    O      4.10274240      0.57358743      7.21972064      6.48461788
    O      5.89771862      0.10717824      9.24577054      6.45402877
    O      2.31427238      2.47375862      8.03726403      6.48387961
    O      1.59178267      0.59273969      6.21909820      6.46352208
    O      2.70676548      1.78241924      3.96383603      6.50418384
    O      1.44465042     19.07840413      3.82892098      6.49949500
    O      4.74332112      2.55956819      2.35675840      6.42890800
    O      9.79033654     17.05815465      3.32281156      6.46941477
    O      7.32796947     16.23825335      4.00606973      6.50229772
    O      8.70432269     14.82093269      2.14869409      6.50338347
    O      6.48660640     17.05192694      6.46920349      6.51397878
    O      4.77151913     17.16436959      4.35425522      6.48701575
    O      5.93140141     14.79730323      7.90167450      6.50906057
    O      3.91268183     16.24437559      6.72447548      6.47883055
    O      1.59635305     14.79619305      6.90359902      6.52164964
    O      1.54460975     17.34869070      5.95326398      6.47440659
    O      2.31232790     16.52850908      3.40695521      6.48587504
    O      4.39754403     14.81272174      2.98840813      6.44907104
    O     19.96665620     18.02785913      9.62724276      6.48629788
    O      2.13412320     18.10512108     11.03427605      6.53117103
    O      2.06782162     16.86410112      8.60510065      6.46979627
    O      1.93955463     19.61874254      8.77577257      6.43354626
    O      3.25034155     19.10673104     13.33333104      6.51305571
    O      3.17307732      0.86530982     11.04550373      6.47109832
    O      4.83184466     18.39122027     11.28105617      6.48998798
    O      4.36789840     17.11650439      1.65388428      6.52799018
    O      5.95398095     19.14113188      0.67846519      6.48012745
    O      4.15744724     19.61698864      2.69530931      6.45172353
    O      7.75614866     17.24892172      1.47231224      6.48827602
    O      8.42671420     19.10075684     12.74690879      6.45841193
    O      7.33969900     17.90995808     10.47577641      6.50776975
    O      8.63495520      0.60062115     10.34224781      6.50545055
    O      5.23665076     17.18544382      8.91060322      6.43533671
    O      0.26933013      2.75156032      9.87556062      6.46673156
    O      2.73987125      3.50633421     10.56097640      6.50131293
    O      1.44076022      4.93313376      8.65985777      6.50726954
    O      3.52957796      2.68878442     13.03623335      6.51739222
    O      5.28620133      2.59490792     10.93707334      6.48910233
    O      4.06526962      4.94337698      1.33424246      6.51533135
    O      6.09352566      3.46222442      0.18631395      6.47274884
    O      8.43627790      4.83205103      0.12464778      6.52664054
    O      8.39845009      2.24264652     12.48952022      6.48275636
    O      7.73878404      3.15438766      9.94018413      6.48521920
    O      5.68197379      4.91501850      9.51758887      6.44242703
    O      0.14849691      8.13111103      4.23960487      6.48806225
    O     18.05869644      8.28793312      2.76238387      6.53526152
    O     17.99234036      7.02210768      5.20847094      6.47324469
    O     18.17756249      9.76454032      5.05562134      6.43312661
    O     16.87535818      9.26877604      0.46737672      6.51147419
    O     16.93907256     10.75558298      2.76959722      6.47109546
    O     15.37557328      8.47973511      2.54626797      6.48691442
    O     15.72255875      7.26223007     12.18909034      6.53125585
    O     14.14563860      9.29016497     13.16959415      6.48600314
    O     15.91778287      9.74810201     11.12596750      6.45258079
    O     12.35902076      7.41643370     12.30868765      6.48280638
    O     11.63333184      9.22774548      1.04039124      6.46250514
    O     12.87423047      8.07383721      3.27089455      6.49258283
    O     11.60179571     10.54117060      3.40846515      6.48773036
    O     14.89039972      7.30779814      4.91714760      6.42593050
    O     19.82526123     12.63623569      3.90754802      6.46888645
    O     17.35096706     13.39548413      3.24019581      6.50421266
    O     18.67361413     14.80815417      5.15461653      6.50821878
    O     16.52343964     12.54734306      0.76604973      6.51484711
    O     14.80499129     12.47376954      2.88247970      6.48970074
    O     16.00887020     14.80222391     12.48210746      6.51036627
    O     13.95827805     13.36242189      0.47389755      6.47193341
    O     11.65315627     14.83617195      0.37887691      6.52245565
    O     11.60303671     12.26997421      1.29264367      6.47282235
    O     12.35543658     13.12023290      3.83712249      6.49004398
    O     14.44394699     14.81429682      4.28879991      6.45197658
    O      9.92985462     11.56459076     10.64245442      6.48783680
    O     12.26081949     11.57638009      9.38308383      6.52896528
    O     12.03457884     12.79471922     11.78484933      6.46888599
    O     11.97266203     10.03666214     11.64460056      6.42781995
    O     13.29528199     10.49311908      7.03735123      6.51709346
    O     13.18625109      9.01412318      9.34902573      6.47574870
    O     14.89904828     11.18085714      9.07077559      6.50226043
    O     14.40812633     12.49009029      5.58623863      6.52231254
    O     16.01068401     10.49392200      6.60436706      6.48586186
    O     14.29218968      9.98172466      4.54977400      6.44663703
    O     17.80325485     12.36087415      5.76845840      6.48201287
    O     18.51303451     10.50091542      7.61402780      6.46306664
    O     17.38565231     11.66222447      9.88998019      6.50419627
    O     18.67606306      9.22593251      9.98703029      6.49622537
    O     15.29773465     12.42173120     11.44508576      6.43355729
    O     10.30566811      7.15436593     10.49332548      6.46419326
    O     12.76174647      6.36151631      9.79487030      6.50646328
    O     11.45366807      4.95336830     11.71424331      6.50871472
    O     13.61874951      7.22043688      7.34936106      6.51321126
    O     15.31319943      7.28737523      9.48586746      6.48491659
    O     14.12863894      4.94365109      5.95471427      6.50967506
    O     16.18048729      6.36557507      7.11421120      6.48466750
    O     18.50205983      4.94491782      6.89864781      6.52270629
    O     18.54278180      7.49381349      7.86737802      6.47523487
    O     17.77758844      6.69204880     10.42457615      6.48413550
    O     15.72310716      4.95132813     10.88491081      6.44901951
    O      9.92456561     17.95168037     10.80355427      6.49206844
    O     12.15435559     18.13746609      9.36682916      6.52941706
    O     12.17319229     16.89155701     11.79687886      6.47267006
    O     11.92939177     19.64115181     11.63962267      6.43752516
    O     13.28849238     19.12861060      7.06738414      6.51510594
    O     13.23656709      0.87213607      9.37365738      6.47130110
    O     14.85487640     18.37293280      9.11904627      6.49084813
    O     14.39427719     17.12947069      5.60491021      6.52531281
    O     15.99421844     19.12944621      6.60745442      6.48337177
    O     14.23107650     19.63603442      4.56965690      6.45015642
    O     17.80530057     17.26008346      5.79239963      6.48179473
    O     18.50336308     19.13244085      7.62020635      6.46481776
    O     17.38273515     17.95438619      9.88182198      6.50737601
    O     18.62985948      0.67300985      9.99501231      6.49928366
    O     15.32335571     17.20178863     11.49311959      6.42809000
    O     10.29367296      2.73618113     10.55290422      6.45774538
    O     12.75498036      3.50831345      9.81875310      6.50279559
    O     13.60851654      2.67312980      7.36359879      6.51540303
    O     15.32568023      2.62869799      9.47624343      6.48485175
    O     16.17182928      3.51446597      7.10003897      6.48346468
    O     18.53369428      2.39589679      7.86705171      6.47604400
    O     17.79020292      3.22642553     10.42217794      6.48719210
    O      0.12645704      1.73028933      4.23888502      6.48510213
    O     17.99572801      1.61589786      2.78119825      6.53382484
    O     17.99205627      2.87274721      5.20919006      6.47457198
    O     18.15109096      0.12205352      5.06221492      6.43314860
    O     16.85173587      0.62479192      0.48353397      6.51349581
    O     16.92783554     18.87398477      2.77870482      6.46965411
    O     15.29604753      1.36878250      2.54786592      6.48828241
    O     15.73206829      2.62562834     12.17678947      6.52775445
    O     14.14440717      0.59054801     13.14186597      6.48323562
    O     15.93117764      0.13328140     11.11703494      6.45664411
    O     12.36302002      2.50112761     12.35697690      6.49211298
    O     11.66010582      0.63859566      1.06023156      6.46162101
    O     12.77981216      1.81505891      3.32323874      6.50801668
    O     11.55907042     19.09512158      3.43830478      6.49933064
    O     14.84696992      2.56746157      4.91461972      6.43167873
    O     19.82563639     16.98895445      3.92442145      6.47077684
    O     17.34461869     16.23350878      3.27162411      6.49928229
    O     16.55144592     17.04513939      0.79728869      6.51386160
    O     14.80348237     17.16022056      2.90041979      6.49013678
    O     13.99094931     16.23825653      0.52919992      6.48042811
    O     11.63062316     17.38711213      1.30561482      6.47531530
    O     12.34918264     16.51551869      3.84761554      6.49099333
    O     19.95366777     11.64916549      9.60989664      6.49843978
    O      2.10916312     11.47167641     11.02206340      6.52352516
    O      2.10945701     12.71379411      8.58926113      6.46993304
    O      1.83338169      9.96539314      8.75340605      6.43888533
    O      3.25190787     10.49365953     13.32550659      6.51853267
    O      3.24283046      9.01897114     11.01796445      6.46594844
    O      4.80707271     11.30539926     11.28957438      6.50091710
    O      4.33220050     12.52037170      1.63003503      6.52901756
    O      5.96683890     10.57047116      0.59610666      6.48573049
    O      4.25339731     10.00960943      2.66302684      6.44974656
    O      7.78086102     12.41362048      1.44233793      6.48254643
    O      8.47182275     10.59940693     12.70779692      6.46322778
    O      7.33411516     11.69117914     10.43155252      6.50664474
    O      8.52560680      9.20507910     10.39472190      6.48748772
    O      5.22077114     12.38329097      8.86644569      6.42865621
    O      0.26084289      7.10095932      9.89115798      6.47034698
    O      2.75225162      6.38725882     10.54951083      6.49638252
    O      3.57509843      7.20852586     13.03141773      6.51986656
    O      5.31808322      7.23928554     10.93767782      6.49332198
    O      6.10742996      6.29569116      0.14132293      6.47663867
    O      8.43663866      7.43450462     12.46516287      6.47867444
    O      7.75268539      6.65116650      9.88920638      6.49380465
    O     10.30593111      8.11732948      3.14317515      6.10498666
    O      7.83086276      8.20571900      4.56910162      6.61586418
    O      8.05217887      6.80839120      1.93629973      6.57045054
    O      8.13681159      9.76781447      2.06422442      6.53421663
    O      6.75079599      9.29337407      6.83421313      6.50693669
    O      6.88175937     10.71510949      4.50325355      6.48209412
    O      5.16663570      8.55048370      4.75336485      6.50006314
    O      5.62306774      7.24731928      8.22941945      6.52495028
    O      4.06650206      9.31149833      7.28850870      6.47730244
    O      5.82711673      9.72328464      9.34525997      6.46461535
    O      2.26460607      7.38783104      8.01423573      6.48527139
    O      1.63937766      9.27560711      6.16115767      6.45527087
    O      2.70708968      8.11104896      3.84065760      6.50591169
    O      1.43977127     10.54620633      3.79396100      6.49842944
    O      4.84212755      7.33566317      2.33592608      6.43799429
    O      9.79355973     12.56529290      3.32206680      6.47103926
    O      7.32897817     13.36255351      3.98822036      6.49711422
    O      6.49199814     12.56905183      6.44767860      6.51637442
    O      4.77380165     12.44267698      4.32416753      6.48610209
    O      3.91553179     13.36630064      6.69043816      6.48420490
    O      1.53881715     12.24749927      5.94109153      6.47680961
    O      2.30861929     13.10837281      3.41431990      6.48447508
    O     10.91417015      8.59463354      5.85316200      6.96525169
    O      9.81698556      7.52492101      7.58354504      6.24054232
