20
XYZ file generated by gabedit : coordinates in Angstrom
C          1.4522500000         -2.8230000000          0.0000000000
C          1.4522500000         -1.2830000000          0.0000000000
C          0.0002500000         -0.7700000000          0.0000000000
C          0.0002500000          0.7700000000          0.0000000000
C         -1.4517500000          1.2830000000          0.0000000000
C         -1.4517500000          2.8230000000          0.0000000000
H          2.4792500000         -3.1870000000          0.0000000000
H          0.9382500000         -3.1870000000          0.8900000000
H          0.9382500000         -3.1870000000         -0.8900000000
H          1.9652500000         -0.9200000000          0.8900000000
H          1.9652500000         -0.9200000000         -0.8900000000
H         -0.5137500000         -1.1330000000         -0.8900000000
H         -0.5137500000         -1.1330000000          0.8900000000
H          0.5132500000          1.1330000000          0.8900000000
H          0.5132500000          1.1330000000         -0.8900000000
H         -1.9657500000          0.9200000000         -0.8900000000
H         -1.9657500000          0.9200000000          0.8900000000
H         -2.4797500000          3.1870000000          0.0000000000
H         -0.9377500000          3.1870000000          0.8900000000
H         -0.9377500000          3.1870000000         -0.8900000000
 
