80
XYZ file generated by gabedit : coordinates in Angstrom
C         -1.1328290000          0.7383900000          0.0000000000
C         -1.1328290000          2.2783900000          0.0000000000
C         -2.5848290000          2.7923900000          0.0000000000
C         -2.5848290000          4.3323900000          0.0000000000
C         -4.0368290000          4.8453900000          0.0000000000
C         -4.0368290000          6.3853900000          0.0000000000
C          0.3191710000          0.2253900000          0.0000000000
H         -1.6468290000          0.3753900000          0.8900000000
H         -1.6468290000          0.3753900000         -0.8900000000
H         -0.6198290000          2.6423900000          0.8900000000
H         -0.6198290000          2.6423900000         -0.8900000000
H         -3.0988290000          2.4283900000         -0.8900000000
H         -3.0988290000          2.4283900000          0.8900000000
H         -2.0718290000          4.6953900000          0.8900000000
H         -2.0718290000          4.6953900000         -0.8900000000
H         -4.5508290000          4.4823900000         -0.8900000000
H         -4.5508290000          4.4823900000          0.8900000000
H         -5.0648290000          6.7483900000          0.0000000000
H         -3.5228290000          6.7483900000          0.8900000000
H         -3.5228290000          6.7483900000         -0.8900000000
C          0.3191710000         -1.3146100000          0.0000000000
H          0.8321710000          0.5883900000         -0.8900000000
H          0.8321710000          0.5883900000          0.8900000000
C          1.7701710000         -1.8276100000          0.0000000000
H         -0.1948290000         -1.6776100000          0.8900000000
H         -0.1948290000         -1.6776100000         -0.8900000000
C          1.7701710000         -3.3676100000          0.0000000000
H          2.2841710000         -1.4646100000         -0.8900000000
H          2.2841710000         -1.4646100000          0.8900000000
C          3.2221710000         -3.8816100000          0.0000000000
H          1.2571710000         -3.7316100000          0.8900000000
H          1.2571710000         -3.7316100000         -0.8900000000
C          3.2221710000         -5.4216100000          0.0000000000
H          3.7361710000         -3.5176100000         -0.8900000000
H          3.7361710000         -3.5176100000          0.8900000000
C          4.6741710000         -5.9346100000          0.0000000000
H          2.7091710000         -5.7846100000          0.8900000000
H          2.7091710000         -5.7846100000         -0.8900000000
H          5.1881710000         -5.5716100000         -0.8900000000
H          5.1881710000         -5.5716100000          0.8900000000
C          9.0320210000        -11.6433640000          0.0000000000
C          7.5798940000        -11.1305980000          0.0000000000
C          7.5786880000         -9.5903070000          0.0000000000
C          6.1265610000         -9.0775420000          0.0000000000
C          6.1262970000         -7.5375830000          0.0000000000
C          4.6741710000         -7.0248180000          0.0000000000
C          9.0322850000        -13.1833220000          0.0000000000
H          9.5454520000        -11.2795590000         -0.8900000000
H          9.5454520000        -11.2795590000          0.8900000000
H          7.0658540000        -11.4931270000         -0.8900000000
H          7.0658540000        -11.4931270000          0.8900000000
H          8.0930610000         -9.2268350000          0.8900000000
H          8.0930610000         -9.2268350000         -0.8900000000
H          5.6134630000         -9.4404030000         -0.8900000000
H          5.6134630000         -9.4404030000          0.8900000000
H          6.6397280000         -7.1737780000          0.8900000000
H          6.6397280000         -7.1737780000         -0.8900000000
H          4.1607400000         -7.3886230000         -0.8900000000
H          4.1607400000         -7.3886230000          0.8900000000
C         10.4844120000        -13.6960870000          0.0000000000
H          8.5191870000        -13.5461840000          0.8900000000
H          8.5191870000        -13.5461840000         -0.8900000000
C         10.4850080000        -15.2351030000          0.0000000000
H         10.9978420000        -13.3322830000         -0.8900000000
H         10.9978420000        -13.3322830000          0.8900000000
C         11.9371350000        -15.7478680000          0.0000000000
H          9.9715770000        -15.5989080000          0.8900000000
H          9.9715770000        -15.5989080000         -0.8900000000
C         11.9383420000        -17.2881600000          0.0000000000
H         12.4511750000        -15.3853390000         -0.8900000000
H         12.4511750000        -15.3853390000          0.8900000000
C         13.3904680000        -17.8009250000          0.0000000000
H         11.4239680000        -17.6516320000          0.8900000000
H         11.4239680000        -17.6516320000         -0.8900000000
C         13.3907320000        -19.3408840000          0.0000000000
H         13.9035660000        -17.4380630000         -0.8900000000
H         13.9035660000        -17.4380630000          0.8900000000
H         14.4185360000        -19.7038150000          0.0000000000
H         12.8773010000        -19.7046890000          0.8900000000
H         12.8773010000        -19.7046890000         -0.8900000000
 
