25
XYZ file generated by gabedit : coordinates in Angstrom
N         -0.0000000000          0.0000000000         -0.2700000000
C          0.8742130000         -0.5045060000          0.0868220000
N          1.0774530000         -1.7395560000         -0.2255020000
N          0.3529250000         -2.2744310000         -0.8571040000
H         -0.0135490000         -3.0686160000         -0.3527680000
H          0.8109840000         -2.5924270000         -1.6995100000
C         -0.0000000000          1.0263740000          0.0929610000
O          0.9152390000          1.7772560000         -0.2018510000
H         -0.8162130000          1.3831100000          0.7188380000
C         -2.0457270000         -0.0093150000         -0.2634120000
O         -2.1588400000          0.9840850000         -0.9660130000
N         -3.1479460000         -0.6489000000          0.1889470000
H         -4.0585010000         -0.3080320000         -0.0521390000
H         -3.0781910000         -1.4643800000          0.7657110000
N         -0.8179920000         -0.4720610000          0.0638740000
H         -0.7024340000         -1.2840650000          0.6381790000
C          2.5792620000         -0.9179360000          0.9844800000
O          1.5063080000         -0.0379230000          0.6387510000
C          3.5925430000         -0.1700540000          1.8697780000
O          4.6654970000         -1.0500660000          2.2155070000
H          3.0641630000         -1.2554710000          0.0925760000
H          2.1909640000         -1.7596470000          1.5188020000
H          3.1076420000          0.1674810000          2.7616810000
H          3.9808410000          0.6716580000          1.3354560000
H          5.2975920000         -0.5834830000          2.7674360000
