41
XYZ file generated by gabedit : coordinates in Angstrom
C         -1.1328290000          0.7383900000          0.0000000000
C         -1.1328290000          2.2783900000          0.0000000000
C         -2.5848290000          2.7923900000          0.0000000000
C         -2.5848290000          4.3323900000          0.0000000000
C         -4.0368290000          4.8453900000          0.0000000000
C         -4.0368290000          6.3853900000          0.0000000000
C          0.3191710000          0.2253900000          0.0000000000
H         -1.6468290000          0.3753900000          0.8900000000
H         -1.6468290000          0.3753900000         -0.8900000000
H         -0.6198290000          2.6423900000          0.8900000000
H         -0.6198290000          2.6423900000         -0.8900000000
H         -3.0988290000          2.4283900000         -0.8900000000
H         -3.0988290000          2.4283900000          0.8900000000
H         -2.0718290000          4.6953900000          0.8900000000
H         -2.0718290000          4.6953900000         -0.8900000000
H         -4.5508290000          4.4823900000         -0.8900000000
H         -4.5508290000          4.4823900000          0.8900000000
H         -5.0648290000          6.7483900000          0.0000000000
H         -3.5228290000          6.7483900000          0.8900000000
H         -3.5228290000          6.7483900000         -0.8900000000
C          0.3191710000         -1.3146100000          0.0000000000
H          0.8321710000          0.5883900000         -0.8900000000
H          0.8321710000          0.5883900000          0.8900000000
C          1.7701710000         -1.8276100000          0.0000000000
H         -0.1948290000         -1.6776100000          0.8900000000
H         -0.1948290000         -1.6776100000         -0.8900000000
C          1.7701710000         -3.3676100000          0.0000000000
H          2.2841710000         -1.4646100000         -0.8900000000
H          2.2841710000         -1.4646100000          0.8900000000
C          3.2221710000         -3.8816100000          0.0000000000
H          1.2571710000         -3.7316100000          0.8900000000
H          1.2571710000         -3.7316100000         -0.8900000000
C          3.2221710000         -5.4216100000          0.0000000000
H          3.7361710000         -3.5176100000         -0.8900000000
H          3.7361710000         -3.5176100000          0.8900000000
C          4.6741710000         -5.9346100000          0.0000000000
H          2.7091710000         -5.7846100000          0.8900000000
H          2.7091710000         -5.7846100000         -0.8900000000
H          4.6741710000         -7.0246100000          0.0000000000
H          5.1881710000         -5.5716100000         -0.8900000000
H          5.1881710000         -5.5716100000          0.8900000000
 
